15

O   -1.16609362   1.93035252  -0.43340026
H   -0.94466589   2.68109885  -0.98438261
H   -1.11511917   1.17729701  -1.02207746
O   -0.88582246  -0.19399696  -2.10575329
H   -0.13544057  -0.69672072  -1.78885002
H   -1.50399687  -0.85553833  -2.41632578
O    1.17064948  -1.20209127   1.57702651
H    0.70741854  -0.38024831   1.73896197
H    0.92673397  -1.76401234   2.31254115
O   -0.27538246   1.07436048   1.99204725
H   -0.67965846   1.66702609   2.62571928
H   -0.59265774   1.37922852   1.14197448
O    1.18690596  -1.63904580  -1.10550265
H    1.17441771  -1.52076746  -0.15572050
H    2.11618946  -1.64033052  -1.33498546
